p_hPa  T_K  qv_gkg  u_ms  v_ms  z_m
1000.000 294.176 14.273 0.002 0.000 0.000
994.256 293.851 14.066 0.179 0.002 50.000
988.539 293.526 13.861 0.357 0.007 100.000
982.847 293.201 13.659 0.537 0.016 150.000
977.181 292.876 13.460 0.720 0.028 200.000
971.541 292.551 13.262 0.909 0.044 250.000
965.926 292.226 13.067 1.106 0.063 300.000
960.337 291.901 12.875 1.313 0.086 350.000
954.774 291.576 12.685 1.536 0.112 400.000
949.236 291.251 12.497 1.779 0.142 450.000
943.723 290.926 12.311 2.047 0.175 500.000
938.236 290.601 12.128 2.345 0.212 550.000
932.774 290.276 11.947 2.677 0.252 600.000
927.337 289.951 11.768 3.045 0.296 650.000
921.925 289.626 11.592 3.450 0.343 700.000
916.538 289.301 11.417 3.886 0.393 750.000
911.176 288.976 11.245 4.346 0.447 800.000
905.839 288.651 11.075 4.818 0.505 850.000
900.526 288.326 10.907 5.285 0.565 900.000
895.239 288.001 10.741 5.729 0.630 950.000
889.976 287.676 10.577 6.132 0.697 1000.000
884.737 287.376 10.433 6.475 0.768 1050.000
879.524 287.076 10.290 6.745 0.842 1100.000
874.335 286.776 10.148 6.932 0.920 1150.000
869.172 286.476 10.008 7.035 1.001 1200.000
864.033 286.176 9.870 7.058 1.085 1250.000
858.918 285.876 9.733 7.012 1.173 1300.000
853.828 285.576 9.598 6.913 1.264 1350.000
848.763 285.276 9.465 6.778 1.358 1400.000
843.722 284.975 9.332 6.627 1.455 1450.000
838.705 284.675 9.202 6.478 1.556 1500.000
833.713 284.375 9.073 6.345 1.659 1550.000
828.744 284.075 8.945 6.238 1.766 1600.000
823.800 283.775 8.819 6.165 1.876 1650.000
818.879 283.475 8.694 6.126 1.989 1700.000
813.983 283.175 8.571 6.123 2.106 1750.000
809.110 282.875 8.449 6.151 2.225 1800.000
804.261 282.575 8.328 6.205 2.347 1850.000
799.435 282.275 8.209 6.282 2.473 1900.000
794.633 281.975 8.092 6.375 2.601 1950.000
789.854 281.674 7.975 6.479 2.733 2000.000
785.099 281.374 7.860 6.592 2.867 2050.000
780.367 281.074 7.747 6.710 3.004 2100.000
775.658 280.774 7.635 6.831 3.145 2150.000
770.973 280.474 7.524 6.952 3.288 2200.000
766.310 280.174 7.414 7.073 3.434 2250.000
761.670 279.874 7.306 7.193 3.582 2300.000
757.054 279.574 7.199 7.311 3.734 2350.000
752.460 279.274 7.093 7.428 3.888 2400.000
747.888 278.974 6.988 7.542 4.045 2450.000
743.339 278.673 6.885 7.654 4.205 2500.000
738.813 278.373 6.783 7.763 4.367 2550.000
734.309 278.073 6.683 7.870 4.532 2600.000
729.828 277.773 6.583 7.975 4.700 2650.000
725.369 277.473 6.485 8.077 4.870 2700.000
720.932 277.173 6.388 8.176 5.042 2750.000
716.517 276.873 6.292 8.273 5.217 2800.000
712.124 276.573 6.197 8.367 5.395 2850.000
707.753 276.273 6.104 8.458 5.575 2900.000
703.404 275.973 6.011 8.546 5.757 2950.000
699.077 275.672 5.920 8.632 5.942 3000.000
694.772 275.372 5.830 8.715 6.129 3050.000
690.488 275.072 5.741 8.795 6.318 3100.000
686.226 274.772 5.653 8.871 6.509 3150.000
681.985 274.472 5.566 8.945 6.703 3200.000
677.765 274.172 5.480 9.016 6.898 3250.000
673.567 273.872 5.396 9.084 7.096 3300.000
669.390 273.572 5.312 9.149 7.296 3350.000
665.235 273.272 5.230 9.211 7.498 3400.000
661.100 272.972 5.148 9.269 7.701 3450.000
656.986 272.671 5.068 9.325 7.907 3500.000
652.894 272.371 4.989 9.377 8.115 3550.000
648.822 272.071 4.910 9.426 8.324 3600.000
644.771 271.771 4.833 9.471 8.535 3650.000
640.740 271.471 4.757 9.514 8.748 3700.000
636.730 271.171 4.681 9.553 8.963 3750.000
632.741 270.871 4.607 9.588 9.179 3800.000
628.772 270.571 4.534 9.620 9.397 3850.000
624.823 270.271 4.461 9.649 9.617 3900.000
620.895 269.971 4.390 9.675 9.838 3950.000
616.987 269.671 4.319 9.696 10.060 4000.000
613.099 269.370 4.250 9.715 10.284 4050.000
609.231 269.070 4.181 9.730 10.509 4100.000
605.383 268.770 4.113 9.741 10.736 4150.000
601.555 268.470 4.046 9.749 10.964 4200.000
597.747 268.170 3.980 9.753 11.193 4250.000
593.958 267.870 3.915 9.753 11.423 4300.000
590.189 267.570 3.851 9.750 11.654 4350.000
586.440 267.270 3.788 9.743 11.887 4400.000
582.710 266.970 3.725 9.733 12.120 4450.000
579.000 266.670 3.664 9.718 12.355 4500.000
575.309 266.369 3.603 9.700 12.590 4550.000
571.637 266.069 3.543 9.678 12.826 4600.000
567.985 265.769 3.484 9.653 13.063 4650.000
564.351 265.469 3.426 9.624 13.301 4700.000
560.737 265.169 3.368 9.590 13.540 4750.000
557.141 264.869 3.311 9.553 13.779 4800.000
553.565 264.569 3.255 9.512 14.019 4850.000
550.007 264.269 3.200 9.468 14.259 4900.000
546.468 263.969 3.146 9.419 14.500 4950.000
542.948 263.669 3.092 9.367 14.741 5000.000
539.446 263.368 3.040 9.310 14.983 5050.000
535.963 263.068 2.988 9.250 15.225 5100.000
532.498 262.768 2.936 9.186 15.467 5150.000
529.052 262.468 2.886 9.118 15.710 5200.000
525.624 262.168 2.836 9.045 15.953 5250.000
522.214 261.868 2.787 8.969 16.196 5300.000
518.822 261.568 2.738 8.889 16.438 5350.000
515.449 261.268 2.690 8.805 16.681 5400.000
512.093 260.968 2.643 8.717 16.924 5450.000
508.755 260.668 2.597 8.625 17.167 5500.000
505.436 260.367 2.551 8.529 17.410 5550.000
502.134 260.067 2.506 8.429 17.652 5600.000
498.849 259.767 2.462 8.325 17.894 5650.000
495.583 259.467 2.418 8.216 18.136 5700.000
492.333 259.167 2.375 8.104 18.378 5750.000
489.102 258.867 2.332 7.988 18.619 5800.000
485.888 258.567 2.291 7.868 18.859 5850.000
482.691 258.267 2.249 7.744 19.099 5900.000
479.511 257.967 2.209 7.615 19.338 5950.000
476.349 257.667 2.169 7.483 19.577 6000.000
473.203 257.367 2.130 7.347 19.815 6050.000
470.075 257.066 2.091 7.206 20.052 6100.000
466.964 256.766 2.053 7.062 20.289 6150.000
463.870 256.466 2.015 6.913 20.524 6200.000
460.792 256.166 1.978 6.761 20.758 6250.000
457.731 255.866 1.942 6.604 20.992 6300.000
454.687 255.566 1.906 6.444 21.224 6350.000
451.660 255.266 1.870 6.279 21.456 6400.000
448.649 254.966 1.836 6.111 21.686 6450.000
445.655 254.666 1.801 5.938 21.915 6500.000
442.677 254.366 1.768 5.762 22.142 6550.000
439.716 254.065 1.734 5.581 22.368 6600.000
436.770 253.765 1.702 5.397 22.593 6650.000
433.841 253.465 1.670 5.209 22.817 6700.000
430.929 253.165 1.638 5.016 23.038 6750.000
428.032 252.865 1.607 4.820 23.259 6800.000
425.151 252.565 1.576 4.620 23.477 6850.000
422.286 252.265 1.546 4.416 23.694 6900.000
419.437 251.965 1.516 4.208 23.909 6950.000
416.604 251.665 1.487 3.996 24.123 7000.000
413.787 251.365 1.458 3.780 24.334 7050.000
410.985 251.064 1.430 3.560 24.544 7100.000
408.199 250.764 1.402 3.337 24.752 7150.000
405.429 250.464 1.375 3.110 24.957 7200.000
402.673 250.164 1.348 2.879 25.161 7250.000
399.934 249.864 1.322 2.644 25.362 7300.000
397.209 249.564 1.296 2.405 25.561 7350.000
394.500 249.264 1.270 2.163 25.758 7400.000
391.806 248.964 1.245 1.917 25.953 7450.000
389.128 248.664 1.220 1.667 26.145 7500.000
386.464 248.364 1.196 1.414 26.335 7550.000
383.815 248.063 1.172 1.157 26.522 7600.000
381.182 247.763 1.149 0.896 26.707 7650.000
378.563 247.463 1.125 0.632 26.889 7700.000
375.959 247.163 1.103 0.364 27.069 7750.000
373.370 246.863 1.080 0.092 27.246 7800.000
370.795 246.563 1.058 -0.183 27.420 7850.000
368.235 246.263 1.037 -0.461 27.591 7900.000
365.690 245.963 1.016 -0.743 27.760 7950.000
363.159 245.663 0.995 -1.028 27.926 8000.000
360.642 245.363 0.974 -1.317 28.088 8050.000
358.140 245.062 0.954 -1.609 28.248 8100.000
355.652 244.762 0.934 -1.904 28.405 8150.000
353.178 244.462 0.915 -2.203 28.558 8200.000
350.719 244.162 0.896 -2.505 28.709 8250.000
348.274 243.862 0.877 -2.810 28.856 8300.000
345.842 243.562 0.859 -3.119 29.000 8350.000
343.425 243.262 0.841 -3.430 29.141 8400.000
341.022 242.962 0.823 -3.745 29.278 8450.000
338.632 242.662 0.806 -4.063 29.412 8500.000
336.256 242.362 0.788 -4.244 29.486 8550.000
333.894 242.062 0.772 -4.244 29.486 8600.000
331.546 241.761 0.755 -4.244 29.486 8650.000
329.211 241.461 0.739 -4.244 29.486 8700.000
326.890 241.161 0.723 -4.244 29.486 8750.000
324.582 240.861 0.707 -4.244 29.486 8800.000
322.288 240.561 0.692 -4.244 29.486 8850.000
320.007 240.261 0.677 -4.244 29.486 8900.000
317.739 239.961 0.662 -4.244 29.486 8950.000
315.485 239.661 0.648 -4.244 29.486 9000.000
313.244 239.361 0.631 -4.244 29.486 9050.000
311.016 239.061 0.615 -4.244 29.486 9100.000
308.800 238.760 0.599 -4.244 29.486 9150.000
306.598 238.460 0.584 -4.244 29.486 9200.000
304.409 238.160 0.569 -4.244 29.486 9250.000
302.233 237.860 0.554 -4.244 29.486 9300.000
300.070 237.560 0.540 -4.244 29.486 9350.000
297.919 237.260 0.526 -4.244 29.486 9400.000
295.781 236.960 0.512 -4.244 29.486 9450.000
293.656 236.660 0.499 -4.244 29.486 9500.000
291.543 236.360 0.486 -4.244 29.486 9550.000
289.443 236.060 0.473 -4.244 29.486 9600.000
287.355 235.759 0.460 -4.244 29.486 9650.000
285.280 235.459 0.448 -4.244 29.486 9700.000
283.217 235.159 0.436 -4.244 29.486 9750.000
281.166 234.859 0.424 -4.244 29.486 9800.000
279.128 234.559 0.413 -4.244 29.486 9850.000
277.102 234.259 0.402 -4.244 29.486 9900.000
275.088 233.959 0.391 -4.244 29.486 9950.000
273.086 233.659 0.380 -4.244 29.486 10000.000
271.096 233.359 0.370 -4.244 29.486 10050.000
269.117 233.059 0.360 -4.244 29.486 10100.000
267.151 232.758 0.350 -4.244 29.486 10150.000
265.197 232.458 0.340 -4.244 29.486 10200.000
263.254 232.158 0.331 -4.244 29.486 10250.000
261.324 231.858 0.322 -4.244 29.486 10300.000
259.405 231.558 0.313 -4.244 29.486 10350.000
257.497 231.258 0.304 -4.244 29.486 10400.000
255.601 230.958 0.296 -4.244 29.486 10450.000
253.717 230.658 0.287 -4.244 29.486 10500.000
251.844 230.358 0.279 -4.244 29.486 10550.000
249.982 230.058 0.271 -4.244 29.486 10600.000
248.132 229.758 0.264 -4.244 29.486 10650.000
246.293 229.457 0.256 -4.244 29.486 10700.000
244.465 229.157 0.249 -4.244 29.486 10750.000
242.649 228.857 0.242 -4.244 29.486 10800.000
240.844 228.557 0.235 -4.244 29.486 10850.000
239.049 228.257 0.228 -4.244 29.486 10900.000
237.266 227.957 0.221 -4.244 29.486 10950.000
235.494 227.657 0.215 -4.244 29.486 11000.000
233.732 227.357 0.209 -4.244 29.486 11050.000
231.982 227.057 0.203 -4.244 29.486 11100.000
230.242 226.757 0.197 -4.244 29.486 11150.000
228.513 226.456 0.191 -4.244 29.486 11200.000
226.795 226.156 0.185 -4.244 29.486 11250.000
225.088 225.856 0.180 -4.244 29.486 11300.000
223.391 225.556 0.174 -4.244 29.486 11350.000
221.704 225.256 0.169 -4.244 29.486 11400.000
220.028 224.956 0.164 -4.244 29.486 11450.000
218.363 224.656 0.159 -4.244 29.486 11500.000
216.708 224.356 0.154 -4.244 29.486 11550.000
215.063 224.056 0.150 -4.244 29.486 11600.000
213.429 223.756 0.145 -4.244 29.486 11650.000
211.805 223.455 0.141 -4.244 29.486 11700.000
210.191 223.155 0.136 -4.244 29.486 11750.000
208.587 222.855 0.132 -4.244 29.486 11800.000
206.993 222.555 0.128 -4.244 29.486 11850.000
205.410 222.255 0.124 -4.244 29.486 11900.000
203.836 221.955 0.120 -4.244 29.486 11950.000
202.272 221.655 0.116 -4.244 29.486 12000.000
200.718 221.355 0.113 -4.244 29.486 12050.000
199.174 221.055 0.109 -4.244 29.486 12100.000
197.640 220.755 0.106 -4.244 29.486 12150.000
196.116 220.454 0.102 -4.244 29.486 12200.000
194.601 220.154 0.099 -4.244 29.486 12250.000
193.096 219.854 0.096 -4.244 29.486 12300.000
191.601 219.554 0.093 -4.244 29.486 12350.000
190.115 219.254 0.090 -4.244 29.486 12400.000
188.638 218.954 0.087 -4.244 29.486 12450.000
187.171 218.654 0.084 -4.244 29.486 12500.000
185.714 218.354 0.081 -4.244 29.486 12550.000
184.266 218.054 0.079 -4.244 29.486 12600.000
182.827 217.754 0.076 -4.244 29.486 12650.000
181.397 217.454 0.074 -4.244 29.486 12700.000
179.977 217.153 0.071 -4.244 29.486 12750.000
178.566 216.853 0.069 -4.244 29.486 12800.000
177.164 216.553 0.067 -4.244 29.486 12850.000
175.771 216.253 0.064 -4.244 29.486 12900.000
174.387 215.953 0.062 -4.244 29.486 12950.000
173.012 215.653 0.060 -4.244 29.486 13000.000
171.646 215.353 0.058 -4.244 29.486 13050.000
170.289 215.053 0.056 -4.244 29.486 13100.000
168.941 214.753 0.054 -4.244 29.486 13150.000
167.602 214.453 0.052 -4.244 29.486 13200.000
166.271 214.152 0.051 -4.244 29.486 13250.000
164.949 213.852 0.049 -4.244 29.486 13300.000
163.636 213.552 0.047 -4.244 29.486 13350.000
162.331 213.252 0.045 -4.244 29.486 13400.000
161.035 212.952 0.044 -4.244 29.486 13450.000
159.748 212.652 0.042 -4.244 29.486 13500.000
158.469 212.352 0.041 -4.244 29.486 13550.000
157.198 212.052 0.039 -4.244 29.486 13600.000
155.936 211.752 0.038 -4.244 29.486 13650.000
154.682 211.452 0.037 -4.244 29.486 13700.000
153.437 211.151 0.035 -4.244 29.486 13750.000
152.200 210.851 0.034 -4.244 29.486 13800.000
150.971 210.551 0.033 -4.244 29.486 13850.000
149.750 210.251 0.032 -4.244 29.486 13900.000
148.538 209.951 0.031 -4.244 29.486 13950.000
147.333 209.651 0.029 -4.244 29.486 14000.000
146.137 209.351 0.028 -4.244 29.486 14050.000
144.948 209.051 0.027 -4.244 29.486 14100.000
143.768 208.751 0.026 -4.244 29.486 14150.000
142.595 208.451 0.025 -4.244 29.486 14200.000
141.431 208.150 0.024 -4.244 29.486 14250.000
140.274 207.850 0.023 -4.244 29.486 14300.000
139.125 207.550 0.023 -4.244 29.486 14350.000
137.984 207.250 0.022 -4.244 29.486 14400.000
136.850 206.950 0.021 -4.244 29.486 14450.000
135.725 206.650 0.020 -4.244 29.486 14500.000
134.606 206.350 0.019 -4.244 29.486 14550.000
133.496 206.050 0.019 -4.244 29.486 14600.000
132.393 205.750 0.018 -4.244 29.486 14650.000
131.298 205.450 0.017 -4.244 29.486 14700.000
130.210 205.150 0.017 -4.244 29.486 14750.000
129.129 204.849 0.016 -4.244 29.486 14800.000
128.056 204.549 0.015 -4.244 29.486 14850.000
126.990 204.249 0.015 -4.244 29.486 14900.000
125.932 203.949 0.014 -4.244 29.486 14950.000
124.881 203.649 0.014 -4.244 29.486 15000.000
123.837 203.349 0.013 -4.244 29.486 15050.000
122.800 203.049 0.013 -4.244 29.486 15100.000
121.771 202.749 0.012 -4.244 29.486 15150.000
120.748 202.449 0.012 -4.244 29.486 15200.000
119.733 202.149 0.011 -4.244 29.486 15250.000
118.725 201.848 0.011 -4.244 29.486 15300.000
117.723 201.548 0.010 -4.244 29.486 15350.000
116.729 201.248 0.010 -4.244 29.486 15400.000
115.742 200.948 0.009 -4.244 29.486 15450.000
114.761 200.648 0.009 -4.244 29.486 15500.000
113.788 200.348 0.009 -4.244 29.486 15550.000
112.821 200.048 0.008 -4.244 29.486 15600.000
111.861 199.748 0.008 -4.244 29.486 15650.000
110.908 199.448 0.008 -4.244 29.486 15700.000
109.961 199.148 0.007 -4.244 29.486 15750.000
109.021 198.847 0.007 -4.244 29.486 15800.000
108.088 198.615 0.007 -4.244 29.486 15850.000
107.163 198.715 0.007 -4.244 29.486 15900.000
106.246 198.815 0.007 -4.244 29.486 15950.000
105.337 198.915 0.007 -4.244 29.486 16000.000
104.436 199.015 0.007 -4.244 29.486 16050.000
103.544 199.115 0.007 -4.244 29.486 16100.000
102.660 199.215 0.007 -4.244 29.486 16150.000
101.783 199.315 0.008 -4.244 29.486 16200.000
100.915 199.415 0.008 -4.244 29.486 16250.000
100.054 199.515 0.008 -4.244 29.486 16300.000
99.202 199.615 0.008 -4.244 29.486 16350.000
98.357 199.715 0.008 -4.244 29.486 16400.000
97.519 199.815 0.008 -4.244 29.486 16450.000
96.689 199.915 0.008 -4.244 29.486 16500.000
95.867 200.015 0.008 -4.244 29.486 16550.000
95.052 200.115 0.009 -4.244 29.486 16600.000
94.244 200.215 0.009 -4.244 29.486 16650.000
93.443 200.315 0.009 -4.244 29.486 16700.000
92.650 200.415 0.009 -4.244 29.486 16750.000
91.864 200.515 0.009 -4.244 29.486 16800.000
91.085 200.615 0.009 -4.244 29.486 16850.000
90.313 200.715 0.009 -4.244 29.486 16900.000
89.548 200.815 0.010 -4.244 29.486 16950.000
88.789 200.915 0.010 -4.244 29.486 17000.000
88.038 201.015 0.010 -4.244 29.486 17050.000
87.293 201.115 0.010 -4.244 29.486 17100.000
86.555 201.215 0.010 -4.244 29.486 17150.000
85.823 201.315 0.010 -4.244 29.486 17200.000
85.098 201.415 0.010 -4.244 29.486 17250.000
84.380 201.515 0.011 -4.244 29.486 17300.000
83.668 201.615 0.011 -4.244 29.486 17350.000
82.962 201.715 0.011 -4.244 29.486 17400.000
82.263 201.815 0.011 -4.244 29.486 17450.000
81.569 201.915 0.011 -4.244 29.486 17500.000
80.882 202.015 0.011 -4.244 29.486 17550.000
80.202 202.115 0.012 -4.244 29.486 17600.000
79.527 202.215 0.012 -4.244 29.486 17650.000
78.858 202.315 0.012 -4.244 29.486 17700.000
78.195 202.415 0.012 -4.244 29.486 17750.000
77.538 202.515 0.012 -4.244 29.486 17800.000
76.887 202.615 0.012 -4.244 29.486 17850.000
76.242 202.715 0.013 -4.244 29.486 17900.000
75.602 202.815 0.013 -4.244 29.486 17950.000
74.968 202.915 0.013 -4.244 29.486 18000.000
74.340 203.015 0.013 -4.244 29.486 18050.000
73.717 203.115 0.013 -4.244 29.486 18100.000
73.100 203.215 0.013 -4.244 29.486 18150.000
72.488 203.315 0.014 -4.244 29.486 18200.000
71.882 203.415 0.014 -4.244 29.486 18250.000
71.281 203.515 0.014 -4.244 29.486 18300.000
70.685 203.615 0.014 -4.244 29.486 18350.000
70.095 203.715 0.014 -4.244 29.486 18400.000
69.510 203.815 0.014 -4.244 29.486 18450.000
68.930 203.915 0.015 -4.244 29.486 18500.000
68.355 204.015 0.015 -4.244 29.486 18550.000
67.785 204.115 0.015 -4.244 29.486 18600.000
67.220 204.215 0.015 -4.244 29.486 18650.000
66.660 204.315 0.015 -4.244 29.486 18700.000
66.105 204.415 0.015 -4.244 29.486 18750.000
65.555 204.515 0.016 -4.244 29.486 18800.000
65.010 204.615 0.016 -4.244 29.486 18850.000
64.470 204.715 0.016 -4.244 29.486 18900.000
63.934 204.815 0.016 -4.244 29.486 18950.000
63.403 204.915 0.016 -4.244 29.486 19000.000
62.877 205.015 0.016 -4.244 29.486 19050.000
62.356 205.115 0.017 -4.244 29.486 19100.000
61.839 205.215 0.017 -4.244 29.486 19150.000
61.326 205.315 0.017 -4.244 29.486 19200.000
60.818 205.415 0.017 -4.244 29.486 19250.000
60.315 205.515 0.017 -4.244 29.486 19300.000
59.815 205.615 0.017 -4.244 29.486 19350.000
59.321 205.715 0.018 -4.244 29.486 19400.000
58.830 205.815 0.018 -4.244 29.486 19450.000
58.344 205.915 0.018 -4.244 29.486 19500.000
57.862 206.015 0.018 -4.244 29.486 19550.000
57.385 206.115 0.018 -4.244 29.486 19600.000
56.911 206.215 0.018 -4.244 29.486 19650.000
56.442 206.315 0.018 -4.244 29.486 19700.000
55.976 206.415 0.019 -4.244 29.486 19750.000
55.515 206.515 0.019 -4.244 29.486 19800.000
55.058 206.615 0.019 -4.244 29.486 19850.000
54.605 206.715 0.019 -4.244 29.486 19900.000
54.155 206.815 0.019 -4.244 29.486 19950.000
53.710 206.915 0.019 -4.244 29.486 20000.000
